Circuit: * Z:\home\guido\Github\VoltageSupervisor\ESP32VoltageSupervisor.asc

.OP point found by inspection.
.step temp=0°C
.step temp=20°C
.step temp=40°C
.step temp=60°C

Date: Sat Nov 04 10:34:17 2023
Total elapsed time: 0.427 seconds.

tnom = 27
temp = 60
method = modified trap
totiter = 2117
traniter = 2117
tranpoints = 1055
accept = 1051
rejected = 4
matrix size = 14
fillins = 2
solver = Normal
Matrix Compiler1: 1.01 KB object code size  0.2/0.1/[0.1]
Matrix Compiler2: 1.19 KB object code size  0.1/0.1/[0.1]

